psse.raw
0,    100.00, 31, 0, 1,  60.00 / PSS(R)E 31 RAW created by rawd31  THU, SEP 06 2012  13:23
102年7月尖峰電力潮流圖(系統負載36180.8MW)
負載比例：北部41.3%,中部28.6%(含東部),南部30.1%
     1,'北部汽電    ',  34.5000,2,   1, 101,   1,1.00683, -30.9406
     2,'中部汽電    ',  34.5000,2,   2, 102,   1,1.01395, -14.4248
     3,'南部汽電    ',  34.5000,2,   3, 103,   1,1.01351, -10.3003
    10,'核一E       ', 345.0000,1,   1, 101,   1,1.01449, -30.8607
    11,'核一#1      ',  19.0000,2,   1, 101,   1,0.98500, -24.6213
    12,'核一#2      ',  19.0000,2,   1, 101,   1,0.98500, -23.9186
    21,'核二#1      ',  22.0000,2,   1, 101,   1,0.98500, -23.1227
    22,'核二#2      ',  22.0000,2,   1, 101,   1,0.98500, -23.4244
    25,'核二STR.1   ',  13.8000,1,   1, 101,   1,1.01488, -30.3935
    30,'核二E       ', 345.0000,1,   1, 101,   1,1.01488, -30.3935
    51,'龍門H       ', 161.0000,1,   1, 101,   1,0.99794, -41.2603
   100,'協和E       ', 345.0000,1,   1, 101,   1,1.01544, -30.4842
   101,'協和#1      ',  18.0000,2,   1, 101,   1,0.98500, -24.4906
   102,'協和#2      ',  18.0000,2,   1, 101,   1,0.98500, -24.7426
   103,'協和#3      ',  18.0000,2,   1, 101,   1,0.98500, -24.7054
   104,'協和#4      ',  18.0000,2,   1, 101,   1,0.98500, -24.8670
   105,'協和TUS2    ',   4.1600,1,   1, 101,   1,1.04147, -30.4842
    15,'核一TSU1    ',   4.1600,1,   1, 101,   1,1.01449, -30.8607
   205,'深澳臨D     ',  23.9000,1,   1,   1,   1,1.00858, -45.1909
   220,'林口H       ', 161.0000,1,   1, 101,   1,1.01612, -42.2718
   221,'林口#1      ',  24.0000,2,   1, 101,   1,0.98000, -37.2854
   222,'林口#2      ',  20.0000,2,   1, 101,   1,0.98000, -37.8185
   229,'林口D       ',  23.9000,1,   1, 101,   1,0.99874, -44.7522
   231,'林口ST1     ',   4.3000,1,   1, 101,   1,1.01612, -42.2718
   232,'林口ST2     ',   4.3000,1,   1, 101,   1,1.01612, -42.2718
   300,'大潭E       ', 345.0000,1,   1,   7,   1,0.99700, -23.7866
   301,'大潭#1G1    ',  16.5000,2,   1, 101,   1,0.96578, -17.4834
   302,'大潭#1G2    ',  16.5000,2,   1, 101,   1,0.96359, -17.4536
   303,'大潭#1G3    ',  16.5000,2,   1, 101,   1,0.96360, -17.4579
   304,'大潭#2G1    ',  16.5000,2,   1, 101,   1,0.97082, -17.7374
   305,'大潭#2G2    ',  16.5000,2,   1, 101,   1,0.96864, -17.7411
   306,'大潭#2G3    ',  16.5000,2,   1, 101,   1,0.96865, -17.7454
   307,'大潭#3G1    ',  16.0000,2,   1, 101,   1,0.97143, -23.7866
   309,'大潭#3G2    ',  16.0000,2,   1, 101,   1,0.96763, -17.7286
   311,'大潭#4G1    ',  16.0000,2,   1, 101,   1,0.96715, -17.4213
   312,'大潭#4G2    ',  16.0000,2,   1, 101,   1,0.96730, -17.4781
   313,'大潭#5G1    ',  16.0000,2,   1, 101,   1,0.96741, -17.4846
   314,'大潭#5G2    ',  16.0000,2,   1, 101,   1,0.96722, -17.4288
   315,'大潭#6G1    ',  16.0000,2,   1, 101,   1,0.96725, -17.4755
   316,'大潭#6G2    ',  16.0000,2,   1, 101,   1,0.96727, -17.4454
   321,'大潭ST1     ',  18.0000,2,   1, 101,   1,0.96542, -18.1185
   322,'大潭ST2     ',  18.0000,2,   1, 101,   1,0.97197, -19.4526
   323,'大潭ST3     ',  16.0000,2,   1, 101,   1,0.97064, -20.3646
   324,'大潭ST4     ',  16.0000,2,   1, 101,   1,0.96722, -17.4485
   325,'大潭ST5     ',  16.0000,2,   1, 101,   1,0.96726, -17.4488
   450,'石門H       ', 161.0000,1,   1, 101,   1,1.00522, -35.4443
   451,'石門#1      ',  13.8000,2,   1, 101,   1,0.96151, -35.4443
   452,'石門#2      ',  13.8000,2,   1, 101,   1,0.96151, -35.4443
   530,'中火北 E    ', 345.0000,1,   2, 102,   1,1.01425, -18.2721
   531,'中火#1      ',  22.0000,2,   2, 102,   1,0.98000, -11.2163
   532,'中火#2      ',  22.0000,2,   2, 102,   1,0.98000, -11.2163
   533,'中火#3      ',  20.9000,2,   2, 102,   1,1.01022, -11.9563
   534,'中火#4      ',  22.0000,2,   2, 102,   1,0.98000, -11.2163
   535,'中火#5      ',  21.5000,2,   2, 102,   1,0.98000,  -1.3060
   536,'中火#6      ',  21.5000,2,   2, 102,   1,0.98000,  -1.3060
   537,'中火#7      ',  21.5000,2,   2, 102,   1,0.98000,  -1.3060
   538,'中火#8      ',  21.5000,2,   2, 102,   1,0.98000,  -1.3060
   539,'中火#9      ',  19.0000,2,   2, 102,   1,0.98000, -11.8705
   540,'中火南E     ', 345.0000,1,   2, 102,   1,1.01976,  -8.0647
   541,'中火#10     ',  19.0000,2,   2, 102,   1,0.98000,  -1.5133
   544,'中火GT1     ',  13.8000,2,   2, 102,   1,0.96935, -21.9648
   545,'中火GT2     ',  13.8000,2,   2, 102,   1,0.96935, -21.9648
   546,'中火GT3     ',  13.8000,2,   2, 102,   1,0.96935, -21.9648
   547,'中火GT4     ',  13.8000,2,   2, 102,   1,0.96935, -21.9648
   555,'中火ST.1    ',   6.9000,1,   2, 102,   1,1.01425, -18.2721
   556,'中火ST.2    ',   6.9000,1,   2, 102,   1,1.01425, -18.2721
   600,'通霄甲H     ', 161.0000,1,   2, 102,   1,1.01411, -24.3238
   603,'通霄G1-1    ',  13.8000,2,   2, 102,   1,0.98000, -19.6744
   604,'通霄G1-2    ',  13.8000,2,   2, 102,   1,1.01376, -20.7397
   605,'通霄G1-3    ',  13.8000,2,   2, 102,   1,1.01368, -20.6763
   606,'通霄ST1     ',  13.8000,2,   2, 102,   1,0.98000, -20.0461
   607,'通霄G2-1    ',  13.8000,2,   2, 102,   1,0.98000, -19.6744
   608,'通霄G2-2    ',  13.8000,2,   2, 102,   1,1.01375, -20.7372
   609,'通霄G2-3    ',  13.8000,2,   2, 102,   1,1.01369, -20.6858
   610,'通霄乙H     ', 161.0000,1,   2, 102,   1,1.01618, -18.0379
   611,'通霄ST2     ',  13.8000,2,   2, 102,   1,0.98000, -20.0461
   612,'通霄G3-1    ',  13.8000,2,   2, 102,   1,0.98000, -13.6785
   613,'通霄G3-2    ',  13.8000,2,   2, 102,   1,1.01594, -14.6658
   614,'通霄G3-3    ',  13.8000,2,   2, 102,   1,1.01588, -14.6140
   615,'通霄ST3     ',  13.8000,2,   2, 102,   1,0.98000, -13.8260
   616,'通霄G4-1    ',  13.8000,2,   2, 102,   1,0.98000, -13.4623
   617,'通霄G4-2    ',  13.8000,2,   2, 102,   1,1.01493, -13.3957
   618,'通霄G4-3    ',  13.8000,2,   2, 102,   1,1.01431, -12.8207
   619,'通霄ST4     ',  13.8000,2,   2, 102,   1,0.98000, -13.5541
   621,'通霄G5-1    ',  13.8000,2,   2, 102,   1,0.98000, -12.5250
   622,'通霄G5-2    ',  13.8000,2,   2, 102,   1,1.01401, -12.6060
   623,'通霄G5-3    ',  13.8000,2,   2, 102,   1,1.01484, -13.3013
   624,'通霄ST5     ',  13.8000,2,   2, 102,   1,0.98000, -12.7620
   625,'通霄G6-1    ',  13.8000,2,   2, 102,   1,0.98000, -19.6118
   626,'通霄G6-2    ',  13.8000,2,   2, 102,   1,0.98000, -19.6580
   627,'通霄ST6     ',  13.8000,2,   2, 102,   1,0.98000, -19.7436
   700,'大觀二E     ', 345.0000,1,   2, 102,   1,1.01427, -14.1435
   701,'大觀二#1    ',  16.5000,2,   2, 102,   1,1.01020,  -7.4447
   702,'大觀二#2    ',  16.5000,2,   2, 102,   1,1.01020,  -7.4447
   703,'大觀二#3    ',  16.5000,2,   2, 102,   1,1.01427, -14.1435
   704,'大觀二#4    ',  16.5000,2,   2, 102,   1,1.01427, -14.1435
   705,'觀二S.T1    ',   6.9000,1,   2, 102,   1,1.01427, -14.1435
   706,'觀二S.T2    ',   6.9000,1,   2, 102,   1,1.01427, -14.1435
   710,'明潭E       ', 345.0000,1,   2, 102,   1,1.01117, -11.7263
   711,'明潭#1      ',  16.5000,2,   2, 102,   1,1.01117, -11.7263
   712,'明潭#2      ',  16.5000,2,   2, 102,   1,1.00687,  -5.1342
   713,'明潭#3      ',  16.5000,2,   2, 102,   1,1.00647,  -4.9411
   714,'明潭#4      ',  16.5000,2,   2, 102,   1,1.00647,  -4.9411
   715,'明潭#5      ',  16.5000,2,   2, 102,   1,1.00647,  -4.9411
   716,'明潭#6      ',  16.5000,2,   2, 102,   1,1.00647,  -4.9411
   717,'水里G       ',  13.8000,2,   2, 102,   1,1.01117, -11.7263
   718,'明潭S.T2    ',  13.8000,1,   2, 102,   1,1.01117, -11.7263
   800,'天輪H       ', 161.0000,1,   2, 102,   1,1.01523, -23.7541
   801,'天輪G1      ',  11.0000,2,   2, 102,   1,0.98000, -20.9222
   802,'天輪G2      ',  11.0000,2,   2, 102,   1,0.98000, -21.0595
   803,'天輪G3      ',  11.0000,2,   2, 102,   1,0.98000, -21.0476
   804,'天輪G4      ',  11.0000,2,   2, 102,   1,0.98000, -20.4820
   810,'新天輪H     ', 161.0000,1,   2, 102,   1,1.01530, -23.7503
   811,'新天輪G5    ',  13.8000,2,   2, 102,   1,0.98000, -22.9614
   825,'新谷關H     ', 161.0000,1,   2, 102,   1,1.02034, -22.7418
   826,'新谷關D     ',  23.9000,1,   2, 102,   1,1.00724, -23.3374
   830,'青山H       ', 161.0000,4,   2, 102,   1,1.00000,   0.0000
   840,'德基H       ', 161.0000,1,   2, 102,   1,1.01967, -22.6594
   841,'德基G1      ',  13.8000,2,   2, 102,   1,0.97596, -21.0335
   842,'德基G2      ',  13.8000,2,   2, 102,   1,0.97596, -21.0335
   843,'德基G3      ',  13.8000,2,   2, 102,   1,0.97533, -22.6594
   844,'德基D       ',  23.9000,1,   2, 102,   1,1.00307, -23.7617
   850,'鉅工H       ', 161.0000,1,   2, 102,   1,1.00571, -24.3608
   851,'鉅工G1      ',  11.0000,2,   2, 102,   1,0.98000, -22.4206
   852,'鉅工G2      ',  11.0000,2,   2, 102,   1,0.98000, -22.3985
   853,'鉅工D       ',  23.9000,1,   2, 102,   1,1.00314, -26.4062
   860,'大觀一H     ', 161.0000,1,   2, 102,   1,1.00725, -24.2452
   861,'大觀一#1    ',  11.0000,2,   2, 102,   1,0.98000, -21.9026
   862,'大觀一#2    ',  11.0000,2,   2, 102,   1,0.98000, -21.8368
   863,'大觀一#3    ',  11.0000,2,   2, 102,   1,0.98000, -21.9445
   864,'大觀一#4    ',  11.0000,2,   2, 102,   1,0.98000, -21.9445
   865,'大觀一#5    ',  11.0000,2,   2, 102,   1,0.98000, -21.9445
   870,'萬大H       ', 161.0000,1,   2, 102,   1,1.00138, -25.7440
   871,'萬大G1-2    ',  11.0000,2,   2, 102,   1,0.98000, -23.5152
   873,'萬大G3      ',  11.0000,2,   2, 102,   1,0.98000, -25.2853
   880,'卓蘭H       ', 161.0000,1,   2, 102,   1,1.01597, -25.4443
   881,'士林G1      ',  13.8000,2,   2, 102,   1,0.98000, -23.7737
   882,'士林G2      ',  13.8000,2,   2, 102,   1,0.98000, -24.6093
   890,'馬鞍H       ', 161.0000,1,   2, 102,   1,1.01606, -24.7790
   891,'馬鞍G1      ',  13.8000,2,   2, 102,   1,0.98000, -22.4669
   892,'馬鞍G2      ',  13.8000,2,   2, 102,   1,0.98000, -23.2536
   895,'新谷關G1    ',  13.8000,2,   2, 102,   1,0.98000, -20.8029
   896,'新谷關G2    ',  13.8000,2,   2, 102,   1,0.98000, -20.8045
   898,'新谷關G4    ',  13.8000,2,   2, 102,   1,0.98000, -20.8352
  1000,'核三E       ', 345.0000,1,   3, 103,   1,1.01554,  -4.0331
  1001,'核三#1      ',  25.0000,2,   3, 103,   1,0.99000,   2.9335
  1002,'核三#2      ',  25.0000,2,   3, 103,   1,0.99000,   2.9389
  1007,'核三G1      ',  13.8000,2,   3, 103,   1,1.00847, -14.1205
  1008,'核三G2      ',  13.8000,2,   3, 103,   1,1.00847, -14.1205
  1009,'核三STR     ',  13.8000,1,   3, 103,   1,1.04158,  -4.0331
  1020,'核三H       ', 161.0000,1,   3, 103,   1,1.00847, -14.1205
  1077,'興達G1-1    ',  13.8000,2,   3, 103,   1,0.96893,  -4.5807
  1078,'興達1-23    ',  13.8000,2,   3, 103,   1,0.96000,   6.3433
  1079,'興達ST1     ',  16.0000,2,   3, 103,   1,0.96000,  -1.4658
  1080,'興達北E     ', 345.0000,1,   3, 103,   1,1.01005,  -6.9357
  1081,'興達#1      ',  18.0000,2,   3, 103,   1,0.96000,  -0.6570
  1082,'興達#2      ',  18.0000,2,   3, 103,   1,0.96000,  -0.6305
  1083,'興達#3      ',  22.0000,3,   3, 103,   1,0.96000,   0.0000
  1084,'興達#4      ',  22.0000,2,   3, 103,   1,0.96000,   0.0926
  1087,'興達G2-1    ',  13.8000,2,   3, 103,   1,0.96949,  -4.5632
  1088,'興達2-23    ',  13.8000,2,   3, 103,   1,0.96000,   7.4229
  1089,'興達ST2     ',  16.0000,2,   3, 103,   1,0.96000,  -1.3605
  1090,'興達南E     ', 345.0000,1,   3, 103,   1,1.00969,  -6.7037
  1091,'興達G3-1    ',  13.8000,2,   3, 103,   1,0.96876,  -4.3193
  1092,'興達3-23    ',  13.8000,2,   3, 103,   1,0.96000,   7.6269
  1093,'興達ST3     ',  16.0000,2,   3, 103,   1,0.96000,  -1.4132
  1094,'興達G4-1    ',  13.8000,2,   3, 103,   1,0.96881,  -4.2337
  1095,'興達4-23    ',  13.8000,2,   3, 103,   1,0.96000,   7.6306
  1096,'興達ST4     ',  16.0000,2,   3, 103,   1,0.96000,  -1.4203
  1097,'興達G5-1    ',  13.8000,2,   3, 103,   1,0.96867,  -4.3187
  1098,'興達5-23    ',  13.8000,2,   3, 103,   1,0.96000,   7.6313
  1099,'興達ST5     ',  16.0000,2,   3, 103,   1,0.96000,  -1.4203
  1100,'大林甲H     ', 161.0000,1,   3, 103,   1,1.00397,  -2.5263
  1101,'大林#1      ',  24.0000,1,   3, 103,   1,0.94025, -13.3722
  1102,'大林#2      ',  24.0000,1,   3, 103,   1,0.94025, -13.3722
  1103,'大林#3      ',  17.0000,2,   3, 103,   1,0.95000,  -8.0807
  1104,'大林#4      ',  17.0000,2,   3, 103,   1,0.95000,   2.7043
  1105,'大林#5      ',  18.0000,2,   3, 103,   1,0.95000,   2.9630
  1106,'大林#6      ',  21.5000,2,   3, 103,   1,0.95000,   4.2214
  1110,'大林乙H     ', 161.0000,1,   3, 103,   1,0.99409, -13.3722
  1120,'大林丙H     ', 161.0000,1,   3, 103,   1,1.00397,  -2.5263
  1123,'大林丙D     ',  23.9000,1,   3, 103,   1,1.00655,  -4.8498
  1200,'南火北H     ', 161.0000,1,   3, 103,   1,1.02198,  -8.9225
  1201,'南火G11     ',  13.8000,2,   3, 103,   1,0.97485,  -3.0022
  1202,'南火G12     ',  13.8000,2,   3, 103,   1,0.97489,  -3.0694
  1203,'南火ST1     ',  13.8000,2,   3, 103,   1,0.97612,  -4.0823
  1204,'南火G21     ',  13.8000,2,   3, 103,   1,0.97487,  -3.0597
  1205,'南火G22     ',  13.8000,2,   3, 103,   1,0.97488,  -3.0646
  1206,'南火ST2     ',  13.8000,2,   3, 103,   1,0.97613,  -4.0878
  1210,'南火南H     ', 161.0000,1,   3, 103,   1,1.01285, -15.6183
  1211,'南火G31     ',  13.8000,2,   3, 103,   1,0.96585,  -9.5593
  1212,'南火G32     ',  13.8000,2,   3, 103,   1,0.96585,  -9.5593
  1213,'南火ST3     ',  13.8000,2,   3, 103,   1,0.96731, -10.6953
  1214,'南火G4      ',  16.0000,2,   3, 103,   1,0.95787,  -8.4339
  1400,'龍澗L       ',  69.0000,1,   4, 104,   1,1.02448, -18.5401
  1401,'龍澗G       ',  11.0000,2,   4, 104,   1,0.98000, -17.2443
  1497,'銅門乙      ',  69.0000,4,   4, 104,   1,1.00000,   0.0000
  1499,'銅門甲      ',  69.0000,4,   4, 104,   1,1.00000,   0.0000
  1500,'冬山E       ', 345.0000,1,   1,   1,   1,1.01181, -30.6586
  1501,'冬山H       ', 161.0000,1,   1,   1,   1,1.00259, -33.6274
...
 0 / END OF BUS DATA, BEGIN LOAD DATA
   205,'1 ',1,   1,   2,    23.136,     3.825,     0.000,     0.000,     0.000,     0.000,   1
   229,'1 ',1,   1,   5,     7.973,     0.457,     0.000,     0.000,     0.000,     0.000,   1
   826,'1 ',1,   2,   9,     4.042,     0.000,     0.000,     0.000,     0.000,     0.000,   1
   844,'1 ',1,   2,   9,     7.478,     1.200,     0.000,     0.000,     0.000,     0.000,   1
   853,'1 ',1,   2,  15,     6.366,     0.213,     0.000,     0.000,     0.000,     0.000,   1
  1123,'1 ',1,   3,  20,    15.438,     2.904,     0.000,     0.000,     0.000,     0.000,   1
  1592,'1 ',1,   1,   2,   209.433,     9.775,     0.000,     0.000,     0.000,     0.000,   1
  1653,'1 ',1,   1,   3,    28.325,     3.506,     0.000,     0.000,     0.000,     0.000,   1
  1702,'1 ',1,   1,   4,   320.551,    50.514,     0.000,     0.000,     0.000,     0.000,   1
  1703,'1 ',1,   1,   4,    87.570,    30.463,     0.000,     0.000,     0.000,     0.000,   1
  1752,'1 ',1,   1,   5,   302.818,    25.253,     0.000,     0.000,     0.000,     0.000,   1
  1900,'1 ',0,   1,   6,    -1.800,     0.000,     0.000,     0.000,     0.000,     0.000,   1
  2003,'1 ',1,   2,   8,    19.301,     3.188,     0.000,     0.000,     0.000,     0.000,   1
  2152,'1 ',1,   2,  11,   149.457,    15.088,     0.000,     0.000,     0.000,     0.000,   1
  2202,'1 ',1,   2,   9,   389.963,    61.097,     0.000,     0.000,     0.000,     0.000,   1
  2203,'1 ',1,   2,   9,    65.987,    19.870,     0.000,     0.000,     0.000,     0.000,   1
  2259,'1 ',1,   2,  10,     7.469,     1.243,     0.000,     0.000,     0.000,     0.000,   1
  2303,'1 ',1,   2,  12,    21.019,     6.163,     0.000,     0.000,     0.000,     0.000,   1
  2353,'1 ',1,   2,  13,    51.234,    11.157,     0.000,     0.000,     0.000,     0.000,   1
  2402,'1 ',1,   2,  14,   446.148,    75.016,     0.000,     0.000,     0.000,     0.000,   1
  2480,'1 ',0,   2,  31,   281.900,     0.000,     0.000,     0.000,     0.000,     0.000,   1
  2603,'1 ',1,   3,  16,    66.254,     4.888,     0.000,     0.000,     0.000,     0.000,   1
  2613,'1 ',1,   3,  16,    52.814,     7.544,     0.000,     0.000,     0.000,     0.000,   1
  2650,'1 ',0,   3,  17,   384.500,     0.000,     0.000,     0.000,     0.000,     0.000,   1
  2672,'1 ',1,   3,  24,    13.545,     2.550,     0.000,     0.000,     0.000,     0.000,   1
  2673,'1 ',1,   3,  24,     8.505,    -3.188,     0.000,     0.000,     0.000,     0.000,   1
  2682,'1 ',1,   3,  19,    49.725,    23.000,     0.000,     0.000,     0.000,     0.000,   1
  2753,'1 ',1,   3,  23,    62.159,     9.350,     0.000,     0.000,     0.000,     0.000,   1
  2802,'1 ',1,   3,  23,   197.188,     4.144,     0.000,     0.000,     0.000,     0.000,   1
  2803,'1 ',1,   3,  23,    99.224,     6.800,     0.000,     0.000,     0.000,     0.000,   1
  2852,'1 ',1,   3,  20,   224.487,    24.439,     0.000,     0.000,     0.000,     0.000,   1
  2902,'1 ',1,   3,  20,   207.058,    32.408,     0.000,     0.000,     0.000,     0.000,   1
  2952,'1 ',1,   3,  21,    82.844,     4.675,     0.000,     0.000,     0.000,     0.000,   1
  3003,'1 ',1,   4,  22,     9.677,     1.812,     0.000,     0.000,     0.000,     0.000,   1
  3102,'1 ',1,   1,   1,   369.417,    11.263,     0.000,     0.000,     0.000,     0.000,   1
  3132,'1 ',1,   1,   2,   245.630,    60.459,     0.000,     0.000,     0.000,     0.000,   1
  3133,'1 ',1,   1,   2,    60.651,    15.938,     0.000,     0.000,     0.000,     0.000,   1
  3142,'1 ',1,   1,   2,   354.282,    56.315,     0.000,     0.000,     0.000,     0.000,   1
  3162,'1 ',1,   1,   2,   339.471,    61.097,     0.000,     0.000,     0.000,     0.000,   1
  3202,'1 ',1,   1,   4,   148.978,    11.369,     0.000,     0.000,     0.000,     0.000,   1
  3222,'1 ',1,   1,   3,   234.494,    35.925,     0.000,     0.000,     0.000,     0.000,   1
  3223,'1 ',1,   1,   3,    39.461,     7.045,     0.000,     0.000,     0.000,     0.000,   1
  3232,'1 ',1,   1,   5,   175.894,    12.644,     0.000,     0.000,     0.000,     0.000,   1
  3242,'1 ',1,   1,   5,   292.344,    64.858,     0.000,     0.000,     0.000,     0.000,   1
  3243,'1 ',1,   1,   5,   109.457,    16.618,     0.000,     0.000,     0.000,     0.000,   1
  3282,'1 ',1,   1,   5,   127.177,    34.023,     0.000,     0.000,     0.000,     0.000,   1
  3283,'1 ',1,   1,   5,    54.483,     8.575,     0.000,     0.000,     0.000,     0.000,   1
  3292,'1 ',1,   1,   5,   140.446,    28.476,     0.000,     0.000,     0.000,     0.000,   1
  3293,'1 ',1,   1,   5,    74.172,    23.164,     0.000,     0.000,     0.000,     0.000,   1
  3302,'1 ',1,   1,   5,   281.914,    49.871,     0.000,     0.000,     0.000,     0.000,   1
  3303,'1 ',1,   1,   5,    79.742,    33.811,     0.000,     0.000,     0.000,     0.000,   1
  3322,'1 ',1,   1,   5,   169.324,    19.870,     0.000,     0.000,     0.000,     0.000,   1
  3323,'1 ',1,   1,   5,    69.298,    21.251,     0.000,     0.000,     0.000,     0.000,   1
  3332,'1 ',1,   1,   5,   265.642,    54.509,     0.000,     0.000,     0.000,     0.000,   1
  3342,'1 ',1,   1,   7,   226.710,    29.220,     0.000,     0.000,     0.000,     0.000,   1
  3352,'1 ',1,   1,   7,   211.523,    23.000,     0.000,     0.000,     0.000,     0.000,   1
  3362,'1 ',1,   1,   6,   236.332,    24.757,     0.000,     0.000,     0.000,     0.000,   1
  3363,'1 ',1,   1,   6,    79.030,    24.120,     0.000,     0.000,     0.000,     0.000,   1
  3369,'1 ',1,   1,   6,   209.088,    53.552,     0.000,     0.000,     0.000,     0.000,   1
  3372,'1 ',1,   1,   7,   575.803,    58.759,     0.000,     0.000,     0.000,     0.000,   1
  3402,'1 ',1,   2,   8,   341.558,    36.233,     0.000,     0.000,     0.000,     0.000,   1
  3403,'1 ',1,   2,   8,    48.101,    12.113,     0.000,     0.000,     0.000,     0.000,   1
  3412,'1 ',1,   2,   8,   219.790,    11.582,     0.000,     0.000,     0.000,     0.000,   1
  3413,'1 ',1,   2,   8,    45.272,     4.675,     0.000,     0.000,     0.000,     0.000,   1
  3422,'1 ',1,   2,   8,   235.958,    29.008,     0.000,     0.000,     0.000,     0.000,   1
  3432,'1 ',1,   2,   8,   135.209,    13.494,     0.000,     0.000,     0.000,     0.000,   1
  3442,'1 ',1,   2,   8,   244.042,    50.896,     0.000,     0.000,     0.000,     0.000,   1
  3443,'1 ',1,   2,   8,    58.611,    10.094,     0.000,     0.000,     0.000,     0.000,   1
  3452,'1 ',1,   2,   9,   214.232,    37.508,     0.000,     0.000,     0.000,     0.000,   1
  3472,'1 ',1,   2,   9,    30.205,    -1.169,     0.000,     0.000,     0.000,     0.000,   1
  3482,'1 ',1,   2,   9,    35.368,     1.594,     0.000,     0.000,     0.000,     0.000,   1
  3483,'1 ',1,   2,   9,    27.790,     2.444,     0.000,     0.000,     0.000,     0.000,   1
  3522,'1 ',1,   2,  11,   168.657,   -12.963,     0.000,     0.000,     0.000,     0.000,   1
  3523,'1 ',1,   2,  11,    66.998,    14.344,     0.000,     0.000,     0.000,     0.000,   1
  3532,'1 ',1,   2,  11,   305.482,    12.432,     0.000,     0.000,     0.000,     0.000,   1
  3552,'1 ',1,   2,  13,   602.027,    85.925,     0.000,     0.000,     0.000,     0.000,   1
  3553,'1 ',1,   2,  13,    66.897,    18.488,     0.000,     0.000,     0.000,     0.000,   1
  3662,'1 ',1,   3,  15,   298.196,    14.132,     0.000,     0.000,     0.000,     0.000,   1
  3663,'1 ',1,   3,  15,    47.354,     4.781,     0.000,     0.000,     0.000,     0.000,   1
  3672,'1 ',1,   3,  15,   278.562,    17.851,     0.000,     0.000,     0.000,     0.000,   1
  3673,'1 ',1,   3,  15,    23.520,     5.313,     0.000,     0.000,     0.000,     0.000,   1
  3682,'1 ',1,   3,  15,   441.310,    40.802,     0.000,     0.000,     0.000,     0.000,   1
  3683,'1 ',1,   3,  15,    54.284,     4.781,     0.000,     0.000,     0.000,     0.000,   1
  3702,'1 ',1,   3,  15,   326.126,    40.271,     0.000,     0.000,     0.000,     0.000,   1
  3722,'1 ',1,   3,  17,   309.641,    49.515,     0.000,     0.000,     0.000,     0.000,   1
  3732,'1 ',1,   3,  16,   105.314,     1.275,     0.000,     0.000,     0.000,     0.000,   1
  3733,'1 ',1,   3,  16,    99.959,    19.020,     0.000,     0.000,     0.000,     0.000,   1
  3762,'1 ',1,   3,  17,   336.626,    51.003,     0.000,     0.000,     0.000,     0.000,   1
  3763,'1 ',1,   3,  17,   155.083,    21.464,     0.000,     0.000,     0.000,     0.000,   1
  3792,'1 ',1,   3,  18,   451.074,    14.557,     0.000,     0.000,     0.000,     0.000,   1
  3793,'1 ',1,   3,  18,    34.755,    14.876,     0.000,     0.000,     0.000,     0.000,   1
  3812,'1 ',1,   3,  23,   109.514,    40.802,     0.000,     0.000,     0.000,     0.000,   1
  3813,'1 ',1,   3,  23,    58.274,     9.988,     0.000,     0.000,     0.000,     0.000,   1
  3882,'1 ',1,   3,  20,   239.712,    75.654,     0.000,     0.000,     0.000,     0.000,   1
  3892,'1 ',1,   3,  20,   304.077,    21.039,     0.000,     0.000,     0.000,     0.000,   1
  3903,'1 ',1,   3,  20,    18.270,     2.869,     0.000,     0.000,     0.000,     0.000,   1
  3912,'1 ',1,   3,  20,    15.624,     1.020,     0.000,     0.000,     0.000,     0.000,   1
  3932,'1 ',1,   3,  21,   197.923,    19.657,     0.000,     0.000,     0.000,     0.000,   1
  3942,'1 ',1,   3,  21,     5.880,    -1.594,     0.000,     0.000,     0.000,     0.000,   1
  3952,'1 ',1,   4,  22,   182.221,    27.765,     0.000,     0.000,     0.000,     0.000,   1
  3953,'1 ',1,   4,  22,    24.582,     0.838,     0.000,     0.000,     0.000,     0.000,   1
  3972,'1 ',1,   4,  22,    42.566,     0.967,     0.000,     0.000,     0.000,     0.000,   1
  4002,'1 ',1,   1,   1,     5.225,    -0.231,     0.000,     0.000,     0.000,     0.000,   1
  4012,'1 ',1,   1,   1,    48.758,     4.994,     0.000,     0.000,     0.000,     0.000,   1
  4026,'1 ',1,   1,   1,    44.866,     8.075,     0.000,     0.000,     0.000,     0.000,   1
  4108,'1 ',1,   1,   2,   122.166,    22.845,     0.000,     0.000,     0.000,     0.000,   1
  4110,'1 ',1,   1,   2,   133.518,    25.501,     0.000,     0.000,     0.000,     0.000,   1
  4112,'1 ',1,   1,   2,    65.191,    12.432,     0.000,     0.000,     0.000,     0.000,   1
  4114,'1 ',1,   1,   2,    30.596,     1.700,     0.000,     0.000,     0.000,     0.000,   1
  4116,'1 ',1,   1,   2,    30.596,     7.863,     0.000,     0.000,     0.000,     0.000,   1
  4118,'1 ',1,   1,   1,     6.054,     0.956,     0.000,     0.000,     0.000,     0.000,   1
  4128,'1 ',1,   1,   1,    17.622,     4.038,     0.000,     0.000,     0.000,     0.000,   1
  4144,'1 ',1,   1,   2,    87.895,    13.282,     0.000,     0.000,     0.000,     0.000,   1
  4204,'1 ',1,   1,   2,    48.542,     8.288,     0.000,     0.000,     0.000,     0.000,   1
  4208,'1 ',1,   1,   2,    64.218,    16.363,     0.000,     0.000,     0.000,     0.000,   1
  4214,'1 ',1,   1,   2,   103.679,    20.401,     0.000,     0.000,     0.000,     0.000,   1
  4256,'1 ',1,   1,   2,   132.329,    21.910,     0.000,     0.000,     0.000,     0.000,   1
  4258,'1 ',1,   1,   2,   131.356,    27.393,     0.000,     0.000,     0.000,     0.000,   1
  4264,'1 ',1,   1,   2,   127.247,    13.122,     0.000,     0.000,     0.000,     0.000,   1
  4266,'1 ',1,   1,   2,    91.246,    13.962,     0.000,     0.000,     0.000,     0.000,   1
  4270,'1 ',1,   1,   3,    96.111,    12.219,     0.000,     0.000,     0.000,     0.000,   1
  4302,'1 ',1,   1,   3,   143.248,    27.998,     0.000,     0.000,     0.000,     0.000,   1
  4306,'1 ',1,   1,   3,   138.365,    27.026,     0.000,     0.000,     0.000,     0.000,   1
  4308,'1 ',1,   1,   3,    97.084,    19.562,     0.000,     0.000,     0.000,     0.000,   1
  4310,'1 ',1,   1,   3,   107.463,    22.037,     0.000,     0.000,     0.000,     0.000,   1
  4352,'1 ',1,   1,   3,   178.060,    32.737,     0.000,     0.000,     0.000,     0.000,   1
  4354,'1 ',1,   1,   4,   119.896,    24.269,     0.000,     0.000,     0.000,     0.000,   1
  4358,'1 ',1,   1,   4,   112.869,    20.815,     0.000,     0.000,     0.000,     0.000,   1
  4360,'1 ',1,   1,   4,    88.219,    12.995,     0.000,     0.000,     0.000,     0.000,   1
  4402,'1 ',1,   1,   3,   147.572,    22.877,     0.000,     0.000,     0.000,     0.000,   1
  4404,'1 ',1,   1,   3,    91.246,    20.401,     0.000,     0.000,     0.000,     0.000,   1
  4410,'1 ',1,   1,   3,   108.436,    12.623,     0.000,     0.000,     0.000,     0.000,   1
  4412,'1 ',1,   1,   4,   118.490,     9.382,     0.000,     0.000,     0.000,     0.000,   1
  4426,'1 ',1,   1,   3,    55.569,     2.975,     0.000,     0.000,     0.000,     0.000,   1
  4428,'1 ',1,   1,   3,    76.975,    18.935,     0.000,     0.000,     0.000,     0.000,   1
  4438,'1 ',1,   1,   4,    84.543,    24.332,     0.000,     0.000,     0.000,     0.000,   1
  4506,'1 ',1,   1,   5,   123.126,    34.416,     0.000,     0.000,     0.000,     0.000,   1
  4508,'1 ',1,   1,   5,    79.597,     8.613,     0.000,     0.000,     0.000,     0.000,   1
  4514,'1 ',1,   1,   5,    78.093,    11.157,     0.000,     0.000,     0.000,     0.000,   1
  4552,'1 ',1,   1,   4,   119.139,    33.162,     0.000,     0.000,     0.000,     0.000,   1
  4556,'1 ',1,   1,   4,   193.844,    23.812,     0.000,     0.000,     0.000,     0.000,   1
  4564,'1 ',1,   1,   4,    88.327,    26.213,     0.000,     0.000,     0.000,     0.000,   1
  4568,'1 ',1,   1,   4,    94.057,    17.341,     0.000,     0.000,     0.000,     0.000,   1
  4574,'1 ',1,   1,   4,   121.409,    19.413,     0.000,     0.000,     0.000,     0.000,   1
  4576,'1 ',1,   1,   4,    72.327,    15.343,     0.000,     0.000,     0.000,     0.000,   1
  4584,'1 ',1,   1,   4,    74.597,    24.981,     0.000,     0.000,     0.000,     0.000,   1
  4602,'1 ',1,   1,   5,    56.159,     4.675,     0.000,     0.000,     0.000,     0.000,   1
  4604,'1 ',1,   1,   5,    74.516,     8.182,     0.000,     0.000,     0.000,     0.000,   1
  4608,'1 ',1,   1,   5,    86.215,    27.520,     0.000,     0.000,     0.000,     0.000,   1
  4612,'1 ',1,   1,   5,    99.867,    32.833,     0.000,     0.000,     0.000,     0.000,   1
  4614,'1 ',1,   1,   5,   123.973,    44.372,     0.000,     0.000,     0.000,     0.000,   1
  4618,'1 ',1,   1,   5,   162.225,    49.303,     0.000,     0.000,     0.000,     0.000,   1
  4626,'1 ',1,   1,   5,   119.205,    10.232,     0.000,     0.000,     0.000,     0.000,   1
  4628,'1 ',1,   1,   5,    73.992,    29.210,     0.000,     0.000,     0.000,     0.000,   1
  4630,'1 ',1,   1,   5,    86.993,    33.864,     0.000,     0.000,     0.000,     0.000,   1
  4636,'1 ',1,   1,   5,    97.907,    28.901,     0.000,     0.000,     0.000,     0.000,   1
  4640,'1 ',1,   1,   5,   152.423,    44.734,     0.000,     0.000,     0.000,     0.000,   1
  4702,'1 ',1,   1,   7,    50.164,    14.238,     0.000,     0.000,     0.000,     0.000,   1
  4704,'1 ',1,   1,   5,    73.430,    14.557,     0.000,     0.000,     0.000,     0.000,   1
  4706,'1 ',1,   1,   5,    93.457,    17.757,     0.000,     0.000,     0.000,     0.000,   1
  4716,'1 ',1,   1,   5,   113.801,    24.014,     0.000,     0.000,     0.000,     0.000,   1
  4752,'1 ',1,   1,   7,    86.165,    22.101,     0.000,     0.000,     0.000,     0.000,   1
  4754,'1 ',1,   1,   7,    49.407,     8.075,     0.000,     0.000,     0.000,     0.000,   1
  4756,'1 ',1,   1,   7,    96.003,    20.401,     0.000,     0.000,     0.000,     0.000,   1
  4758,'1 ',1,   1,   7,    59.461,    17.119,     0.000,     0.000,     0.000,     0.000,   1
  4760,'1 ',1,   1,   7,    47.029,    13.081,     0.000,     0.000,     0.000,     0.000,   1
  4802,'1 ',1,   1,   6,    89.733,    21.145,     0.000,     0.000,     0.000,     0.000,   1
  4806,'1 ',1,   1,   6,    63.894,    17.532,     0.000,     0.000,     0.000,     0.000,   1
  4812,'1 ',1,   1,   6,    64.110,    13.494,     0.000,     0.000,     0.000,     0.000,   1
  4814,'1 ',1,   1,   7,    63.828,    21.463,     0.000,     0.000,     0.000,     0.000,   1
  4816,'1 ',1,   1,   7,    97.517,    22.101,     0.000,     0.000,     0.000,     0.000,   1
  4818,'1 ',1,   1,   7,    35.569,     2.656,     0.000,     0.000,     0.000,     0.000,   1
  4820,'1 ',1,   1,   6,    62.272,    12.007,     0.000,     0.000,     0.000,     0.000,   1
  4822,'1 ',1,   1,   7,   119.463,    19.870,     0.000,     0.000,     0.000,     0.000,   1
  4832,'1 ',1,   1,   7,    38.272,     8.288,     0.000,     0.000,     0.000,     0.000,   1
  4902,'1 ',1,   1,   5,    41.113,     3.400,     0.000,     0.000,     0.000,     0.000,   1
  4904,'1 ',1,   1,   4,    30.055,     8.894,     0.000,     0.000,     0.000,     0.000,   1
  4910,'1 ',1,   1,   5,    40.901,    10.201,     0.000,     0.000,     0.000,     0.000,   1
  4922,'1 ',1,   1,   5,   114.686,    16.363,     0.000,     0.000,     0.000,     0.000,   1
  5002,'1 ',1,   2,   8,    83.166,    11.582,     0.000,     0.000,     0.000,     0.000,   1
  5004,'1 ',1,   2,   8,    80.337,    13.388,     0.000,     0.000,     0.000,     0.000,   1
  5006,'1 ',1,   2,   8,    86.400,    15.832,     0.000,     0.000,     0.000,     0.000,   1
  5014,'1 ',1,   2,   8,    27.183,     2.975,     0.000,     0.000,     0.000,     0.000,   1
  5016,'1 ',1,   2,   8,    72.859,    13.176,     0.000,     0.000,     0.000,     0.000,   1
  5018,'1 ',1,   2,   8,    87.411,    15.726,     0.000,     0.000,     0.000,     0.000,   1
  5022,'1 ',1,   2,   8,    64.168,    16.682,     0.000,     0.000,     0.000,     0.000,   1
  5024,'1 ',1,   2,   8,    39.613,     6.482,     0.000,     0.000,     0.000,     0.000,   1
  5026,'1 ',1,   2,   8,    29.305,     3.188,     0.000,     0.000,     0.000,     0.000,   1
  5058,'1 ',1,   1,   7,    55.245,    26.351,     0.000,     0.000,     0.000,     0.000,   1
  5076,'1 ',1,   1,   7,    45.407,    -2.338,     0.000,     0.000,     0.000,     0.000,   1
  5080,'1 ',1,   2,   8,    37.491,    12.432,     0.000,     0.000,     0.000,     0.000,   1
  5092,'1 ',1,   2,   8,    80.236,    11.157,     0.000,     0.000,     0.000,     0.000,   1
  5502,'1 ',1,   2,   9,    70.636,    19.764,     0.000,     0.000,     0.000,     0.000,   1
  5504,'1 ',1,   2,   9,    94.383,     6.375,     0.000,     0.000,     0.000,     0.000,   1
  5506,'1 ',1,   2,   8,   100.143,    27.414,     0.000,     0.000,     0.000,     0.000,   1
  5522,'1 ',1,   2,   8,   108.430,    40.590,     0.000,     0.000,     0.000,     0.000,   1
  5524,'1 ',1,   2,   9,    68.413,    18.595,     0.000,     0.000,     0.000,     0.000,   1
  5526,'1 ',1,   2,   9,    15.259,     2.338,     0.000,     0.000,     0.000,     0.000,   1
  5538,'1 ',1,   2,   9,    61.844,    12.963,     0.000,     0.000,     0.000,     0.000,   1
  5602,'1 ',1,   2,   9,    60.531,    19.551,     0.000,     0.000,     0.000,     0.000,   1
...
 0 / END OF LOAD DATA, BEGIN FIXED SHUNT DATA
  8006,'1 ',1,  -208.100,     0.000
  8201,'1 ',1,    -8.100,     0.000
  8441,'1 ',1,  -103.600,     0.000
  8500,'1 ',1,  -106.700,     0.000
  8600,'1 ',1,   -28.700,     0.000
  9601,'1 ',0,     0.000,     0.000
  9603,'1 ',1,   -16.800,     0.000
  9810,'1 ',1,  -108.400,     0.000
 0 / END OF FIXED SHUNT DATA, BEGIN GENERATOR DATA
     1,'1 ',    -1.800,     0.000,     0.000,     0.000,1.00000,     0,   590.000, 0.00000E+0, 1.00000E+0, 0.00000E+0, 0.00000E+0,1.00000,0,  100.0,  9999.000,     0.000,   1,1.0000,   0,0.0000,   0,0.0000,   0,0.0000
     2,'1 ',   281.900,     0.000,     0.000,     0.000,1.00000,     0,   666.800, 0.00000E+0, 1.00000E+0, 0.00000E+0, 0.00000E+0,1.00000,0,  100.0,  9999.000,     0.000,   1,1.0000,   0,0.0000,   0,0.0000,   0,0.0000
     3,'1 ',   384.500,     0.000,     0.000,     0.000,1.00000,     0,   666.800, 0.00000E+0, 1.00000E+0, 0.00000E+0, 0.00000E+0,1.00000,0,  100.0,  9999.000,     0.000,   1,1.0000,   0,0.0000,   0,0.0000,   0,0.0000
    11,'1 ',   605.499,   161.613,   290.000,     0.000,0.98500,     0,   706.700, 0.00000E+0, 3.13000E-1, 0.00000E+0, 0.00000E+0,1.00000,1,  100.0,   605.500,     0.000,   1,1.0000,   0,0.0000,   0,0.0000,   0,0.0000
    12,'2 ',   605.999,   151.342,   290.000,     0.000,0.98500,     0,   706.700, 0.00000E+0, 3.13000E-1, 0.00000E+0, 0.00000E+0,1.00000,1,  100.0,   630.000,     0.000,   1,1.0000,   0,0.0000,   0,0.0000,   0,0.0000
    21,'1 ',   969.998,   175.488,   450.000,     0.000,0.98500,     0,  1095.110, 0.00000E+0, 3.07000E-1, 0.00000E+0, 0.00000E+0,1.00000,1,  100.0,   970.000,     0.000,   1,1.0000,   0,0.0000,   0,0.0000,   0,0.0000
    22,'2 ',   929.998,   171.084,   450.000,     0.000,0.98500,     0,  1095.110, 0.00000E+0, 3.07000E-1, 0.00000E+0, 0.00000E+0,1.00000,1,  100.0,   950.000,     0.000,   1,1.0000,   0,0.0000,   0,0.0000,   0,0.0000
   101,'1 ',   429.999,   104.683,   290.000,     0.000,0.98500,     0,   590.000, 0.00000E+0, 3.10000E-1, 0.00000E+0, 0.00000E+0,1.00000,1,  100.0,   485.000,     0.000,   1,1.0000,   0,0.0000,   0,0.0000,   0,0.0000
   102,'2 ',   419.999,   103.692,   290.000,     0.000,0.98500,     0,   588.235, 0.00000E+0, 2.60000E-1, 0.00000E+0, 0.00000E+0,1.00000,1,  100.0,   485.000,     0.000,   1,1.0000,   0,0.0000,   0,0.0000,   0,0.0000
   103,'3 ',   419.999,   104.178,   290.000,     0.000,0.98500,     0,   590.000, 0.00000E+0, 3.10000E-1, 0.00000E+0, 0.00000E+0,1.00000,1,  100.0,   485.000,     0.000,   1,1.0000,   0,0.0000,   0,0.0000,   0,0.0000
   104,'4 ',   419.999,   105.772,   290.000,     0.000,0.98500,     0,   588.235, 0.00000E+0, 2.60000E-1, 0.00000E+0, 0.00000E+0,1.00000,1,  100.0,   485.000,     0.000,   1,1.0000,   0,0.0000,   0,0.0000,   0,0.0000
   221,'1 ',   255.000,    47.853,   185.000,     0.000,0.98000,     0,   353.000, 0.00000E+0, 2.65000E-1, 0.00000E+0, 0.00000E+0,1.00000,1,  100.0,   255.000,     0.000,   1,1.0000,   0,0.0000,   0,0.0000,   0,0.0000
   222,'2 ',   271.600,    63.884,   230.000,     0.000,0.98000,     0,   411.800, 0.00000E+0, 1.71000E-1, 0.00000E+0, 0.00000E+0,1.00000,1,  100.0,   271.600,     0.000,   1,1.0000,   0,0.0000,   0,0.0000,   0,0.0000
   301,'1 ',   150.000,     0.000,   114.310,     0.000,0.95500,     0,   217.000, 0.00000E+0, 1.56000E-1, 0.00000E+0, 0.00000E+0,1.00000,1,  100.0,   151.500,     0.000,   1,1.0000,   0,0.0000,   0,0.0000,   0,0.0000
   302,'2 ',   150.000,     0.000,   114.310,     0.000,0.95500,     0,   217.000, 0.00000E+0, 1.56000E-1, 0.00000E+0, 0.00000E+0,1.00000,1,  100.0,   151.500,     0.000,   1,1.0000,   0,0.0000,   0,0.0000,   0,0.0000
   303,'3 ',   150.000,     0.000,   114.310,     0.000,0.95500,     0,   217.000, 0.00000E+0, 1.56000E-1, 0.00000E+0, 0.00000E+0,1.00000,1,  100.0,   151.500,     0.000,   1,1.0000,   0,0.0000,   0,0.0000,   0,0.0000
   304,'1 ',   150.000,     0.000,   114.310,     0.000,0.95500,     0,   217.000, 0.00000E+0, 1.56000E-1, 0.00000E+0, 0.00000E+0,1.00000,1,  100.0,   151.500,     0.000,   1,1.0000,   0,0.0000,   0,0.0000,   0,0.0000
   305,'2 ',   150.000,     0.000,   114.310,     0.000,0.95500,     0,   217.000, 0.00000E+0, 1.56000E-1, 0.00000E+0, 0.00000E+0,1.00000,1,  100.0,   151.500,     0.000,   1,1.0000,   0,0.0000,   0,0.0000,   0,0.0000
   306,'3 ',   150.000,     0.000,   114.310,     0.000,0.95500,     0,   217.000, 0.00000E+0, 1.56000E-1, 0.00000E+0, 0.00000E+0,1.00000,1,  100.0,   151.500,     0.000,   1,1.0000,   0,0.0000,   0,0.0000,   0,0.0000
   307,'1 ',     0.000,     8.805,   166.990,     0.000,0.96000,     0,   317.000, 0.00000E+0, 2.11000E-1, 0.00000E+0, 0.00000E+0,1.00000,0,  100.0,   233.400,     0.000,   1,1.0000,   0,0.0000,   0,0.0000,   0,0.0000
   309,'2 ',   200.000,     0.000,   166.990,     0.000,0.96000,     0,   317.000, 0.00000E+0, 2.11000E-1, 0.00000E+0, 0.00000E+0,1.00000,1,  100.0,   233.400,     0.000,   1,1.0000,   0,0.0000,   0,0.0000,   0,0.0000
   311,'1 ',   210.000,     0.000,   166.990,     0.000,0.96000,     0,   317.000, 0.00000E+0, 2.11000E-1, 0.00000E+0, 0.00000E+0,1.00000,1,  100.0,   233.400,     0.000,   1,1.0000,   0,0.0000,   0,0.0000,   0,0.0000
   312,'2 ',   210.000,     0.000,   166.990,     0.000,0.96000,     0,   317.000, 0.00000E+0, 2.11000E-1, 0.00000E+0, 0.00000E+0,1.00000,1,  100.0,   233.400,     0.000,   1,1.0000,   0,0.0000,   0,0.0000,   0,0.0000
   313,'1 ',   210.000,     0.000,   166.990,     0.000,0.96000,     0,   317.000, 0.00000E+0, 2.11000E-1, 0.00000E+0, 0.00000E+0,1.00000,1,  100.0,   233.400,     0.000,   1,1.0000,   0,0.0000,   0,0.0000,   0,0.0000
   314,'2 ',   210.000,     0.000,   166.990,     0.000,0.96000,     0,   317.000, 0.00000E+0, 2.11000E-1, 0.00000E+0, 0.00000E+0,1.00000,1,  100.0,   233.400,     0.000,   1,1.0000,   0,0.0000,   0,0.0000,   0,0.0000
   321,'S ',   270.000,     0.000,   185.950,     0.000,0.95500,     0,   353.000, 0.00000E+0, 2.00000E-1, 0.00000E+0, 0.00000E+0,1.00000,1,  100.0,   270.700,     0.000,   1,1.0000,   0,0.0000,   0,0.0000,   0,0.0000
   322,'S ',   230.000,     0.000,   185.950,     0.000,0.95500,     0,   353.000, 0.00000E+0, 2.00000E-1, 0.00000E+0, 0.00000E+0,1.00000,1,  100.0,   270.700,     0.000,   1,1.0000,   0,0.0000,   0,0.0000,   0,0.0000
   323,'S ',   113.700,     0.000,   168.570,     0.000,0.96000,     0,   320.000, 0.00000E+0, 1.80000E-1, 0.00000E+0, 0.00000E+0,1.00000,1,  100.0,   241.250,     0.000,   1,1.0000,   0,0.0000,   0,0.0000,   0,0.0000
   324,'S ',   210.000,     0.000,   168.570,     0.000,0.96000,     0,   320.000, 0.00000E+0, 2.13000E-1, 0.00000E+0, 0.00000E+0,1.00000,1,  100.0,   241.250,     0.000,   1,1.0000,   0,0.0000,   0,0.0000,   0,0.0000
   325,'S ',   210.000,     0.000,   168.570,     0.000,0.96000,     0,   320.000, 0.00000E+0, 2.13000E-1, 0.00000E+0, 0.00000E+0,1.00000,1,  100.0,   241.250,     0.000,   1,1.0000,   0,0.0000,   0,0.0000,   0,0.0000
   531,'1 ',   525.000,    89.943,   320.000,     0.000,0.98000,     0,   679.235, 0.00000E+0, 1.60000E-1, 0.00000E+0, 0.00000E+0,1.00000,1,  100.0,   525.000,     0.000,   1,1.0000,   0,0.0000,   0,0.0000,   0,0.0000
   532,'2 ',   525.000,    89.943,   320.000,     0.000,0.98000,     0,   679.240, 0.00000E+0, 1.60000E-1, 0.00000E+0, 0.00000E+0,1.00000,1,  100.0,   525.000,     0.000,   1,1.0000,   0,0.0000,   0,0.0000,   0,0.0000
   533,'3 ',   525.000,     0.000,   320.000,     0.000,0.98000,     0,   679.240, 0.00000E+0, 1.60000E-1, 0.00000E+0, 0.00000E+0,1.00000,1,  100.0,   525.000,     0.000,   1,1.0000,   0,0.0000,   0,0.0000,   0,0.0000
   534,'4 ',   525.000,    89.943,   320.000,     0.000,0.98000,     0,   679.240, 0.00000E+0, 1.60000E-1, 0.00000E+0, 0.00000E+0,1.00000,1,  100.0,   525.000,     0.000,   1,1.0000,   0,0.0000,   0,0.0000,   0,0.0000
   535,'5 ',   525.000,    79.963,   320.000,     0.000,0.98000,     0,   679.240, 0.00000E+0, 1.70000E-1, 0.00000E+0, 0.00000E+0,1.00000,1,  100.0,   525.000,     0.000,   1,1.0000,   0,0.0000,   0,0.0000,   0,0.0000
   536,'6 ',   525.000,    79.963,   320.000,     0.000,0.98000,     0,   679.240, 0.00000E+0, 1.70000E-1, 0.00000E+0, 0.00000E+0,1.00000,1,  100.0,   525.000,     0.000,   1,1.0000,   0,0.0000,   0,0.0000,   0,0.0000
   537,'7 ',   525.000,    79.963,   320.000,     0.000,0.98000,     0,   679.240, 0.00000E+0, 1.70000E-1, 0.00000E+0, 0.00000E+0,1.00000,1,  100.0,   525.000,     0.000,   1,1.0000,   0,0.0000,   0,0.0000,   0,0.0000
   538,'8 ',   525.000,    79.963,   320.000,     0.000,0.98000,     0,   679.240, 0.00000E+0, 1.70000E-1, 0.00000E+0, 0.00000E+0,1.00000,1,  100.0,   525.000,     0.000,   1,1.0000,   0,0.0000,   0,0.0000,   0,0.0000
   539,'9 ',   525.000,    95.371,   320.000,     0.000,0.98000,     0,   650.000, 0.00000E+0, 2.42000E-1, 0.00000E+0, 0.00000E+0,1.00000,1,  100.0,   525.000,     0.000,   1,1.0000,   0,0.0000,   0,0.0000,   0,0.0000
   541,'A ',   525.000,    72.172,   320.000,     0.000,0.98000,     0,   650.000, 0.00000E+0, 2.42000E-1, 0.00000E+0, 0.00000E+0,1.00000,1,  100.0,   525.000,     0.000,   1,1.0000,   0,0.0000,   0,0.0000,   0,0.0000
   544,'1 ',     0.000,     0.000,    45.300,     0.000,0.98000,     0,   104.000, 2.30000E-3, 1.86000E-1, 0.00000E+0, 0.00000E+0,1.00000,0,  100.0,    69.700,     0.000,   1,1.0000,   0,0.0000,   0,0.0000,   0,0.0000
   545,'1 ',     0.000,     0.000,    45.300,     0.000,0.98000,     0,   104.000, 2.30000E-3, 1.86000E-1, 0.00000E+0, 0.00000E+0,1.00000,0,  100.0,    69.700,     0.000,   1,1.0000,   0,0.0000,   0,0.0000,   0,0.0000
   546,'1 ',     0.000,     0.000,    45.300,     0.000,0.98000,     0,   104.000, 2.30000E-3, 1.86000E-1, 0.00000E+0, 0.00000E+0,1.00000,0,  100.0,    69.700,     0.000,   1,1.0000,   0,0.0000,   0,0.0000,   0,0.0000
   547,'1 ',     0.000,     0.000,    45.300,     0.000,0.98000,     0,   104.000, 2.30000E-3, 1.86000E-1, 0.00000E+0, 0.00000E+0,1.00000,0,  100.0,    69.700,     0.000,   1,1.0000,   0,0.0000,   0,0.0000,   0,0.0000
   603,'1 ',    56.350,     7.978,    29.180,     0.000,0.98000,     0,   115.750, 0.00000E+0, 2.79000E-1, 0.00000E+0, 0.00000E+0,1.00000,1,  100.0,    56.350,     0.000,   1,1.0000,   0,0.0000,   0,0.0000,   0,0.0000
   604,'2 ',    56.350,     0.000,    29.180,     0.000,0.98000,     0,   115.750, 0.00000E+0, 2.79000E-1, 0.00000E+0, 0.00000E+0,1.00000,1,  100.0,    56.350,     0.000,   1,1.0000,   0,0.0000,   0,0.0000,   0,0.0000
   605,'3 ',    56.350,     0.000,    29.180,     0.000,0.98000,     0,   115.750, 0.00000E+0, 2.79000E-1, 0.00000E+0, 0.00000E+0,1.00000,1,  100.0,    56.350,     0.000,   1,1.0000,   0,0.0000,   0,0.0000,   0,0.0000
   606,'S ',    84.280,    12.617,    52.600,     0.000,0.98000,     0,   137.200, 0.00000E+0, 1.67000E-1, 0.00000E+0, 0.00000E+0,1.00000,1,  100.0,    84.280,     0.000,   1,1.0000,   0,0.0000,   0,0.0000,   0,0.0000
   607,'1 ',    56.350,     7.978,    29.180,     0.000,0.98000,     0,   115.750, 0.00000E+0, 2.79000E-1, 0.00000E+0, 0.00000E+0,1.00000,1,  100.0,    56.350,     0.000,   1,1.0000,   0,0.0000,   0,0.0000,   0,0.0000
   608,'2 ',    56.350,     0.000,    29.180,     0.000,0.98000,     0,   115.750, 0.00000E+0, 2.79000E-1, 0.00000E+0, 0.00000E+0,1.00000,1,  100.0,    56.350,     0.000,   1,1.0000,   0,0.0000,   0,0.0000,   0,0.0000
   609,'3 ',    56.350,     0.000,    29.180,     0.000,0.98000,     0,   115.750, 0.00000E+0, 2.79000E-1, 0.00000E+0, 0.00000E+0,1.00000,1,  100.0,    56.350,     0.000,   1,1.0000,   0,0.0000,   0,0.0000,   0,0.0000
   611,'S ',    84.280,    12.617,    52.600,     0.000,0.98000,     0,   137.200, 0.00000E+0, 1.67000E-1, 0.00000E+0, 0.00000E+0,1.00000,1,  100.0,    84.280,     0.000,   1,1.0000,   0,0.0000,   0,0.0000,   0,0.0000
   612,'1 ',    52.920,     6.381,    33.200,     0.000,0.98000,     0,    70.588, 0.00000E+0, 1.70000E-1, 0.00000E+0, 0.00000E+0,1.00000,1,  100.0,    52.920,     0.000,   1,1.0000,   0,0.0000,   0,0.0000,   0,0.0000
   613,'2 ',    52.920,     0.000,    33.200,     0.000,0.98000,     0,    70.588, 0.00000E+0, 1.70000E-1, 0.00000E+0, 0.00000E+0,1.00000,1,  100.0,    52.920,     0.000,   1,1.0000,   0,0.0000,   0,0.0000,   0,0.0000
   614,'3 ',    52.920,     0.000,    33.200,     0.000,0.98000,     0,    70.588, 0.00000E+0, 1.70000E-1, 0.00000E+0, 0.00000E+0,1.00000,1,  100.0,    52.920,     0.000,   1,1.0000,   0,0.0000,   0,0.0000,   0,0.0000
   615,'S ',    83.100,    10.261,    52.600,     0.000,0.98000,     0,   113.000, 0.00000E+0, 1.10000E-1, 0.00000E+0, 0.00000E+0,1.00000,1,  100.0,    83.100,     0.000,   1,1.0000,   0,0.0000,   0,0.0000,   0,0.0000
   616,'1 ',    70.000,     8.237,    48.800,     0.000,0.98000,     0,   119.200, 0.00000E+0, 2.00000E-1, 0.00000E+0, 0.00000E+0,1.00000,1,  100.0,    81.480,     0.000,   1,1.0000,   0,0.0000,   0,0.0000,   0,0.0000
   617,'2 ',    70.000,     0.000,    48.800,     0.000,0.98000,     0,   119.200, 0.00000E+0, 2.00000E-1, 0.00000E+0, 0.00000E+0,1.00000,1,  100.0,    81.480,     0.000,   1,1.0000,   0,0.0000,   0,0.0000,   0,0.0000
   618,'3 ',    80.000,     0.000,    48.800,     0.000,0.98000,     0,   119.200, 0.00000E+0, 2.00000E-1, 0.00000E+0, 0.00000E+0,1.00000,1,  100.0,    84.280,     0.000,   1,1.0000,   0,0.0000,   0,0.0000,   0,0.0000
   619,'S ',   103.340,    12.252,    65.100,     0.000,0.98000,     0,   166.200, 0.00000E+0, 1.68000E-1, 0.00000E+0, 0.00000E+0,1.00000,1,  100.0,   117.600,     0.000,   1,1.0000,   0,0.0000,   0,0.0000,   0,0.0000
   621,'1 ',    84.280,     9.138,    48.800,     0.000,0.98000,     0,   119.200, 0.00000E+0, 2.00000E-1, 0.00000E+0, 0.00000E+0,1.00000,1,  100.0,    91.280,     0.000,   1,1.0000,   0,0.0000,   0,0.0000,   0,0.0000
   622,'2 ',    84.280,     0.000,    48.800,     0.000,0.98000,     0,   119.200, 0.00000E+0, 2.00000E-1, 0.00000E+0, 0.00000E+0,1.00000,1,  100.0,    84.280,     0.000,   1,1.0000,   0,0.0000,   0,0.0000,   0,0.0000
   623,'3 ',    74.480,     0.000,    48.800,     0.000,0.98000,     0,   119.200, 0.00000E+0, 2.00000E-1, 0.00000E+0, 0.00000E+0,1.00000,1,  100.0,    74.480,     0.000,   1,1.0000,   0,0.0000,   0,0.0000,   0,0.0000
   624,'S ',   121.520,    13.340,    65.100,     0.000,0.98000,     0,   166.200, 0.00000E+0, 1.68000E-1, 0.00000E+0, 0.00000E+0,1.00000,1,  100.0,   121.520,     0.000,   1,1.0000,   0,0.0000,   0,0.0000,   0,0.0000
   625,'1 ',   100.000,    13.702,    60.700,     0.000,0.98000,     0,   145.000, 0.00000E+0, 1.50000E-1, 0.00000E+0, 0.00000E+0,1.00000,1,  100.0,   100.000,     0.000,   1,1.0000,   0,0.0000,   0,0.0000,   0,0.0000
   626,'2 ',   100.000,    13.709,    60.700,     0.000,0.98000,     0,   145.000, 0.00000E+0, 1.50000E-1, 0.00000E+0, 0.00000E+0,1.00000,1,  100.0,   109.000,     0.000,   1,1.0000,   0,0.0000,   0,0.0000,   0,0.0000
   627,'S ',    98.900,    13.694,    65.100,     0.000,0.98000,     0,   145.000, 0.00000E+0, 1.50000E-1, 0.00000E+0, 0.00000E+0,1.00000,1,  100.0,   106.000,     0.000,   1,1.0000,   0,0.0000,   0,0.0000,   0,0.0000
   701,'1 ',   240.000,     0.000,   120.000,     0.000,1.00000,     0,   280.000, 0.00000E+0, 1.60000E-1, 0.00000E+0, 0.00000E+0,1.00000,1,  100.0,   240.000,  -240.000,   1,1.0000,   0,0.0000,   0,0.0000,   0,0.0000
   702,'2 ',   240.000,     0.000,   120.000,     0.000,1.00000,     0,   280.000, 0.00000E+0, 1.60000E-1, 0.00000E+0, 0.00000E+0,1.00000,1,  100.0,   240.000,  -240.000,   1,1.0000,   0,0.0000,   0,0.0000,   0,0.0000
   703,'3 ',     0.000,   -68.126,   120.000,     0.000,1.00000,     0,   280.000, 0.00000E+0, 1.60000E-1, 0.00000E+0, 0.00000E+0,1.00000,0,  100.0,   240.000,  -240.000,   1,1.0000,   0,0.0000,   0,0.0000,   0,0.0000
   704,'4 ',     0.000,     0.000,   120.000,     0.000,1.00000,     0,   280.000, 0.00000E+0, 1.60000E-1, 0.00000E+0, 0.00000E+0,1.00000,0,  100.0,   240.000,  -240.000,   1,1.0000,   0,0.0000,   0,0.0000,   0,0.0000
   711,'1 ',   240.000,     0.000,   130.000,     0.000,1.00000,     0,   300.000, 0.00000E+0, 2.10000E-1, 0.00000E+0, 0.00000E+0,1.00000,0,  100.0,   240.800,  -240.800,   1,1.0000,   0,0.0000,   0,0.0000,   0,0.0000
   712,'2 ',   240.000,     0.000,   130.000,     0.000,1.00000,     0,   300.000, 0.00000E+0, 2.10000E-1, 0.00000E+0, 0.00000E+0,1.00000,1,  100.0,   240.800,  -240.800,   1,1.0000,   0,0.0000,   0,0.0000,   0,0.0000
   713,'3 ',   240.000,     0.000,   130.000,     0.000,1.00000,     0,   300.000, 0.00000E+0, 2.10000E-1, 0.00000E+0, 0.00000E+0,1.00000,1,  100.0,   240.800,  -240.800,   1,1.0000,   0,0.0000,   0,0.0000,   0,0.0000
   714,'4 ',   240.000,     0.000,   130.000,     0.000,1.00000,     0,   300.000, 0.00000E+0, 2.10000E-1, 0.00000E+0, 0.00000E+0,1.00000,1,  100.0,   240.800,  -240.800,   1,1.0000,   0,0.0000,   0,0.0000,   0,0.0000
   715,'5 ',   240.000,     0.000,   130.000,     0.000,1.00000,     0,   300.000, 0.00000E+0, 2.10000E-1, 0.00000E+0, 0.00000E+0,1.00000,1,  100.0,   240.800,  -240.800,   1,1.0000,   0,0.0000,   0,0.0000,   0,0.0000
   716,'6 ',   240.000,     0.000,   130.000,     0.000,1.00000,     0,   300.000, 0.00000E+0, 2.10000E-1, 0.00000E+0, 0.00000E+0,1.00000,1,  100.0,   240.800,  -240.800,   1,1.0000,   0,0.0000,   0,0.0000,   0,0.0000
   717,'G ',     0.000,     0.000,     7.000,     0.000,0.99000,     0,    15.000, 0.00000E+0, 2.77000E-1, 0.00000E+0, 0.00000E+0,1.00000,0,  100.0,    12.800,     0.000,   1,1.0000,   0,0.0000,   0,0.0000,   0,0.0000
   801,'1 ',    15.000,     3.161,    12.420,     0.000,0.98000,     0,    28.500, 0.00000E+0, 1.98400E-1, 0.00000E+0, 0.00000E+0,1.00000,1,  100.0,    25.000,     0.000,   1,1.0000,   0,0.0000,   0,0.0000,   0,0.0000
   802,'2 ',    15.000,     3.280,    12.420,     0.000,0.98000,     0,    28.500, 0.00000E+0, 3.66000E-1, 0.00000E+0, 0.00000E+0,1.00000,1,  100.0,    25.000,     0.000,   1,1.0000,   0,0.0000,   0,0.0000,   0,0.0000
   803,'3 ',    15.000,     3.267,    12.420,     0.000,0.98000,     0,    28.500, 0.00000E+0, 3.66000E-1, 0.00000E+0, 0.00000E+0,1.00000,1,  100.0,    25.000,     0.000,   1,1.0000,   0,0.0000,   0,0.0000,   0,0.0000
   804,'4 ',    15.000,     2.635,    12.420,     0.000,0.98000,     0,    28.500, 0.00000E+0, 2.04000E-1, 0.00000E+0, 0.00000E+0,1.00000,1,  100.0,    25.000,     0.000,   1,1.0000,   0,0.0000,   0,0.0000,   0,0.0000
   811,'5 ',    20.000,    12.637,    51.100,     0.000,0.98000,     0,   117.222, 0.00000E+0, 2.40000E-1, 0.00000E+0, 0.00000E+0,1.00000,1,  100.0,   100.000,     0.000,   1,1.0000,   0,0.0000,   0,0.0000,   0,0.0000
   841,'1 ',    30.000,     0.000,     6.000,     0.000,0.97500,     0,    86.667, 0.00000E+0, 2.50000E-1, 0.00000E+0, 0.00000E+0,1.00000,1,  100.0,    66.700,     0.000,   1,1.0000,   0,0.0000,   0,0.0000,   0,0.0000
   842,'2 ',    30.000,     0.000,    37.770,     0.000,0.97500,     0,    86.667, 0.00000E+0, 2.50000E-1, 0.00000E+0, 0.00000E+0,1.00000,1,  100.0,    66.700,     0.000,   1,1.0000,   0,0.0000,   0,0.0000,   0,0.0000
   843,'3 ',     0.000,     0.000,    37.770,     0.000,0.97500,     0,    86.667, 0.00000E+0, 2.50000E-1, 0.00000E+0, 0.00000E+0,1.00000,0,  100.0,    66.700,     0.000,   1,1.0000,   0,0.0000,   0,0.0000,   0,0.0000
   851,'1 ',    10.000,     5.506,     8.324,     0.000,0.98000,     0,    23.300, 0.00000E+0, 2.14300E-1, 0.00000E+0, 0.00000E+0,1.00000,1,  100.0,    21.750,     0.000,   1,1.0000,   0,0.0000,   0,0.0000,   0,0.0000
   852,'1 ',    10.000,     5.451,     8.324,     0.000,0.98000,     0,    23.300, 0.00000E+0, 2.14300E-1, 0.00000E+0, 0.00000E+0,1.00000,1,  100.0,    21.750,     0.000,   1,1.0000,   0,0.0000,   0,0.0000,   0,0.0000
   861,'1 ',    10.000,     4.428,    10.500,     0.000,0.98000,     0,    24.440, 0.00000E+0, 2.53000E-1, 0.00000E+0, 0.00000E+0,1.00000,1,  100.0,    21.000,     0.000,   1,1.0000,   0,0.0000,   0,0.0000,   0,0.0000
   862,'1 ',    10.000,     4.194,    10.500,     0.000,0.98000,     0,    24.444, 0.00000E+0, 2.53000E-1, 0.00000E+0, 0.00000E+0,1.00000,1,  100.0,    21.000,     0.000,   1,1.0000,   0,0.0000,   0,0.0000,   0,0.0000
   863,'1 ',    10.000,     4.529,    10.500,     0.000,0.98000,     0,    24.440, 0.00000E+0, 2.53000E-1, 0.00000E+0, 0.00000E+0,1.00000,1,  100.0,    21.000,     0.000,   1,1.0000,   0,0.0000,   0,0.0000,   0,0.0000
   864,'1 ',    10.000,     4.529,    10.500,     0.000,0.98000,     0,    24.440, 0.00000E+0, 2.53000E-1, 0.00000E+0, 0.00000E+0,1.00000,1,  100.0,    21.000,     0.000,   1,1.0000,   0,0.0000,   0,0.0000,   0,0.0000
   865,'1 ',    10.000,     4.529,    10.500,     0.000,0.98000,     0,    24.440, 0.00000E+0, 2.53000E-1, 0.00000E+0, 0.00000E+0,1.00000,1,  100.0,    21.000,     0.000,   1,1.0000,   0,0.0000,   0,0.0000,   0,0.0000
   871,'G ',    10.400,     3.272,    10.000,     0.000,0.98000,     0,    23.000, 0.00000E+0, 3.50000E-1, 0.00000E+0, 0.00000E+0,1.00000,1,  100.0,    10.400,     0.000,   1,1.0000,   0,0.0000,   0,0.0000,   0,0.0000
   873,'3 ',     4.600,     3.252,     7.400,     0.000,0.98000,     0,    17.000, 0.00000E+0, 3.80000E-1, 0.00000E+0, 0.00000E+0,1.00000,1,  100.0,     4.600,     0.000,   1,1.0000,   0,0.0000,   0,0.0000,   0,0.0000
   881,'1 ',    10.000,     2.740,    19.350,     0.000,0.98000,     0,    44.400, 0.00000E+0, 2.30000E-1, 0.00000E+0, 0.00000E+0,1.00000,1,  100.0,    40.000,     0.000,   1,1.0000,   0,0.0000,   0,0.0000,   0,0.0000
   882,'2 ',     5.000,     2.740,    19.350,     0.000,0.98000,     0,    44.400, 0.00000E+0, 2.30000E-1, 0.00000E+0, 0.00000E+0,1.00000,1,  100.0,    40.000,     0.000,   1,1.0000,   0,0.0000,   0,0.0000,   0,0.0000
   891,'1 ',    30.000,     5.919,    32.320,     0.000,0.98000,     0,    74.150, 0.00000E+0, 1.70000E-1, 0.00000E+0, 0.00000E+0,1.00000,1,  100.0,    66.750,     0.000,   1,1.0000,   0,0.0000,   0,0.0000,   0,0.0000
   892,'1 ',    20.000,     5.898,    32.320,     0.000,0.98000,     0,    74.150, 0.00000E+0, 1.70000E-1, 0.00000E+0, 0.00000E+0,1.00000,1,  100.0,    66.750,     0.000,   1,1.0000,   0,0.0000,   0,0.0000,   0,0.0000
   895,'1 ',    20.000,     2.030,    26.370,     0.000,0.98000,     0,    60.500, 0.00000E+0, 2.24000E-1, 0.00000E+0, 0.00000E+0,1.00000,1,  100.0,    33.750,     0.000,   1,1.0000,   0,0.0000,   0,0.0000,   0,0.0000
   896,'2 ',    20.000,     2.031,    26.370,     0.000,0.98000,     0,    60.500, 0.00000E+0, 2.24000E-1, 0.00000E+0, 0.00000E+0,1.00000,1,  100.0,    33.750,     0.000,   1,1.0000,   0,0.0000,   0,0.0000,   0,0.0000
   898,'4 ',    20.000,     2.053,    26.370,     0.000,0.98000,     0,    60.500, 0.00000E+0, 2.24000E-1, 0.00000E+0, 0.00000E+0,1.00000,1,  100.0,    33.750,     0.000,   1,1.0000,   0,0.0000,   0,0.0000,   0,0.0000
  1001,'1 ',   921.299,    47.614,   440.000,     0.000,0.99000,     0,  1057.500, 0.00000E+0, 2.60000E-1, 0.00000E+0, 0.00000E+0,1.00000,1,  100.0,   931.300,     0.000,   1,1.0000,   0,0.0000,   0,0.0000,   0,0.0000
  1002,'2 ',   921.999,    47.690,   440.000,     0.000,0.99000,     0,  1057.500, 0.00000E+0, 3.40000E-1, 0.00000E+0, 0.00000E+0,1.00000,1,  100.0,   932.000,     0.000,   1,1.0000,   0,0.0000,   0,0.0000,   0,0.0000
  1007,'1 ',     0.000,     0.000,    30.000,     0.000,0.95000,     0,    69.600, 0.00000E+0, 1.80000E-1, 0.00000E+0, 0.00000E+0,1.00000,0,  100.0,    79.000,     0.000,   1,1.0000,   0,0.0000,   0,0.0000,   0,0.0000
  1008,'1 ',     0.000,     0.000,    30.000,     0.000,0.95000,     0,    69.600, 0.00000E+0, 1.80000E-1, 0.00000E+0, 0.00000E+0,1.00000,0,  100.0,    79.000,     0.000,   1,1.0000,   0,0.0000,   0,0.0000,   0,0.0000
  1077,'1 ',    89.500,     0.000,    45.000,     0.000,0.96000,     0,   106.000, 0.00000E+0, 1.52000E-1, 0.00000E+0, 0.00000E+0,1.00000,1,  100.0,    89.500,     0.000,   1,1.0000,   0,0.0000,   0,0.0000,   0,0.0000
  1078,'2 ',    89.500,     6.537,    45.000,     0.000,0.96000,     0,   106.000, 0.00000E+0, 1.52000E-1, 0.00000E+0, 0.00000E+0,1.00000,1,  100.0,    89.500,     0.000,   1,1.0000,   0,0.0000,   0,0.0000,   0,0.0000
  1078,'3 ',    89.500,     6.537,    45.000,     0.000,0.96000,     0,   106.000, 0.00000E+0, 1.52000E-1, 0.00000E+0, 0.00000E+0,1.00000,1,  100.0,    89.500,     0.000,   1,1.0000,   0,0.0000,   0,0.0000,   0,0.0000
  1079,'S ',   158.500,     5.235,    71.000,     0.000,0.96000,     0,   224.500, 0.00000E+0, 1.73000E-1, 0.00000E+0, 0.00000E+0,1.00000,1,  100.0,   158.500,     0.000,   1,1.0000,   0,0.0000,   0,0.0000,   0,0.0000
  1081,'1 ',   469.299,    21.811,   290.000,     0.000,0.96000,     0,   590.000, 0.00000E+0, 3.10000E-1, 0.00000E+0, 0.00000E+0,1.00000,1,  100.0,   469.300,     0.000,   1,1.0000,   0,0.0000,   0,0.0000,   0,0.0000
  1082,'2 ',   469.299,    21.936,   290.000,     0.000,0.96000,     0,   590.000, 0.00000E+0, 3.10000E-1, 0.00000E+0, 0.00000E+0,1.00000,1,  100.0,   469.300,     0.000,   1,1.0000,   0,0.0000,   0,0.0000,   0,0.0000
  1083,'3 ',   518.116,    29.031,   320.000,     0.000,0.96000,     0,   666.750, 0.00000E+0, 2.10000E-1, 0.00000E+0, 0.00000E+0,1.00000,1,  100.0,   525.000,     0.000,   1,1.0000,   0,0.0000,   0,0.0000,   0,0.0000
  1084,'4 ',   525.000,    29.816,   320.000,     0.000,0.96000,     0,   666.750, 0.00000E+0, 2.10000E-1, 0.00000E+0, 0.00000E+0,1.00000,1,  100.0,   525.000,     0.000,   1,1.0000,   0,0.0000,   0,0.0000,   0,0.0000
  1087,'1 ',    89.500,     0.000,    45.000,     0.000,0.96000,     0,   106.000, 0.00000E+0, 1.52000E-1, 0.00000E+0, 0.00000E+0,1.00000,1,  100.0,    89.500,     0.000,   1,1.0000,   0,0.0000,   0,0.0000,   0,0.0000
  1088,'2 ',    89.500,     7.323,    45.000,     0.000,0.96000,     0,   106.000, 0.00000E+0, 1.52000E-1, 0.00000E+0, 0.00000E+0,1.00000,1,  100.0,    89.500,     0.000,   1,1.0000,   0,0.0000,   0,0.0000,   0,0.0000
  1088,'3 ',    89.500,     7.323,    45.000,     0.000,0.96000,     0,   106.000, 0.00000E+0, 1.52000E-1, 0.00000E+0, 0.00000E+0,1.00000,1,  100.0,    89.500,     0.000,   1,1.0000,   0,0.0000,   0,0.0000,   0,0.0000
  1089,'S ',   158.500,     5.315,    71.000,     0.000,0.96000,     0,   224.500, 0.00000E+0, 1.73000E-1, 0.00000E+0, 0.00000E+0,1.00000,1,  100.0,   158.500,     0.000,   1,1.0000,   0,0.0000,   0,0.0000,   0,0.0000
  1091,'1 ',    89.500,     0.000,    45.000,     0.000,0.96000,     0,   106.000, 0.00000E+0, 1.52000E-1, 0.00000E+0, 0.00000E+0,1.00000,1,  100.0,    89.500,     0.000,   1,1.0000,   0,0.0000,   0,0.0000,   0,0.0000
  1092,'2 ',    89.500,     7.415,    45.000,     0.000,0.96000,     0,   106.000, 0.00000E+0, 1.52000E-1, 0.00000E+0, 0.00000E+0,1.00000,1,  100.0,    89.500,     0.000,   1,1.0000,   0,0.0000,   0,0.0000,   0,0.0000
  1092,'3 ',    89.500,     7.415,    45.000,     0.000,0.96000,     0,   106.000, 0.00000E+0, 1.52000E-1, 0.00000E+0, 0.00000E+0,1.00000,1,  100.0,    89.500,     0.000,   1,1.0000,   0,0.0000,   0,0.0000,   0,0.0000
  1093,'S ',   158.500,     5.114,    71.000,     0.000,0.96000,     0,   224.500, 0.00000E+0, 1.73000E-1, 0.00000E+0, 0.00000E+0,1.00000,1,  100.0,   158.500,     0.000,   1,1.0000,   0,0.0000,   0,0.0000,   0,0.0000
  1094,'1 ',    89.500,     0.000,    45.000,     0.000,0.96000,     0,   106.000, 0.00000E+0, 1.52000E-1, 0.00000E+0, 0.00000E+0,1.00000,1,  100.0,    89.500,     0.000,   1,1.0000,   0,0.0000,   0,0.0000,   0,0.0000
  1095,'2 ',    89.500,     7.856,    45.000,     0.000,0.96000,     0,   106.000, 0.00000E+0, 1.52000E-1, 0.00000E+0, 0.00000E+0,1.00000,1,  100.0,    89.500,     0.000,   1,1.0000,   0,0.0000,   0,0.0000,   0,0.0000
  1095,'3 ',    89.500,     7.856,    45.000,     0.000,0.96000,     0,   106.000, 0.00000E+0, 1.52000E-1, 0.00000E+0, 0.00000E+0,1.00000,1,  100.0,    89.500,     0.000,   1,1.0000,   0,0.0000,   0,0.0000,   0,0.0000
...